src/tests/data/output/raw_export_result/IEEE 14 bus.raw
,100.0,33,0,0,50     / Created with GridCal
(Thu Mar 20 12:19:55 2025)  HORIZON: 20241205 00H DEM: 25029.8MW
HID:4644MW,TERM:10747MW,EOL:6503MW,FV:0MW,OK
     1, 'BUS 1       ', 138.0000, 3,      1,      1,      1,  1.06000,   0.0000,  1.05000,  0.95000,  1.10000,  0.90000
     2, 'BUS 2       ', 138.0000, 2,      1,      1,      1,  1.04500,  -4.9826,  1.05000,  0.95000,  1.10000,  0.90000
     3, 'BUS 3       ', 138.0000, 2,      1,      1,      1,  1.01000, -12.7250,  1.05000,  0.95000,  1.10000,  0.90000
     4, 'BUS 4       ', 138.0000, 1,      1,      1,      1,  1.01767, -10.3128,  1.05000,  0.95000,  1.10000,  0.90000
     5, 'BUS 5       ', 138.0000, 1,      1,      1,      1,  1.01951,  -8.7738,  1.05000,  0.95000,  1.10000,  0.90000
     6, 'BUS 6       ', 138.0000, 2,      1,      1,      1,  1.07000, -14.2209,  1.05000,  0.95000,  1.10000,  0.90000
     7, 'BUS 7       ', 138.0000, 1,      1,      1,      1,  1.06152, -13.3596,  1.05000,  0.95000,  1.10000,  0.90000
     8, 'BUS 8       ', 138.0000, 2,      1,      1,      1,  1.09000, -13.3596,  1.05000,  0.95000,  1.10000,  0.90000
     9, 'BUS 9       ', 138.0000, 1,      1,      1,      1,  1.05593, -14.9385,  1.05000,  0.95000,  1.10000,  0.90000
    10, 'BUS 10      ', 138.0000, 1,      1,      1,      1,  1.05099, -15.0972,  1.05000,  0.95000,  1.10000,  0.90000
    11, 'BUS 11      ', 138.0000, 1,      1,      1,      1,  1.05691, -14.7906,  1.05000,  0.95000,  1.10000,  0.90000
    12, 'BUS 12      ', 138.0000, 1,      1,      1,      1,  1.05519, -15.0755,  1.05000,  0.95000,  1.10000,  0.90000
    13, 'BUS 13      ', 138.0000, 1,      1,      1,      1,  1.05038, -15.1562,  1.05000,  0.95000,  1.10000,  0.90000
    14, 'BUS 14      ', 138.0000, 1,      1,      1,      1,  1.03553, -16.0336,  1.05000,  0.95000,  1.10000,  0.90000
0 / END OF BUS DATA, BEGIN LOAD DATA
     2, '1 ',      1,      0,      0,     21.7,     12.7, 0.00000E+00, 0.00000E+00, 0.00000E+00, 0.00000E+00,      0, 1.00000E+00, 0.00000E+00
     3, '1 ',      1,      0,      0,     94.2,       19, 0.00000E+00, 0.00000E+00, 0.00000E+00, 0.00000E+00,      0, 1.00000E+00, 0.00000E+00
     4, '1 ',      1,      0,      0,     47.8,     -3.9, 0.00000E+00, 0.00000E+00, 0.00000E+00, 0.00000E+00,      0, 1.00000E+00, 0.00000E+00
     5, '1 ',      1,      0,      0, 7.60000E+00, 1.60000E+00, 0.00000E+00, 0.00000E+00, 0.00000E+00, 0.00000E+00,      0, 1.00000E+00, 0.00000E+00
     6, '1 ',      1,      0,      0,     11.2, 7.50000E+00, 0.00000E+00, 0.00000E+00, 0.00000E+00, 0.00000E+00,      0, 1.00000E+00, 0.00000E+00
     9, '1 ',      1,      0,      0,     29.5,     16.6, 0.00000E+00, 0.00000E+00, 0.00000E+00, 0.00000E+00,      0, 1.00000E+00, 0.00000E+00
    10, '1 ',      1,      0,      0, 9.00000E+00, 5.80000E+00, 0.00000E+00, 0.00000E+00, 0.00000E+00, 0.00000E+00,      0, 1.00000E+00, 0.00000E+00
    11, '1 ',      1,      0,      0, 3.50000E+00, 1.80000E+00, 0.00000E+00, 0.00000E+00, 0.00000E+00, 0.00000E+00,      0, 1.00000E+00, 0.00000E+00
    12, '1 ',      1,      0,      0, 6.10000E+00, 1.60000E+00, 0.00000E+00, 0.00000E+00, 0.00000E+00, 0.00000E+00,      0, 1.00000E+00, 0.00000E+00
    13, '1 ',      1,      0,      0,     13.5, 5.80000E+00, 0.00000E+00, 0.00000E+00, 0.00000E+00, 0.00000E+00,      0, 1.00000E+00, 0.00000E+00
    14, '1 ',      1,      0,      0,     14.9, 5.00000E+00, 0.00000E+00, 0.00000E+00, 0.00000E+00, 0.00000E+00,      0, 1.00000E+00, 0.00000E+00
0 / END OF LOAD DATA, BEGIN FIXED SHUNT DATA
     9, '2 ',      1, 0.00000E+00,       19
0 / END OF FIXED SHUNT DATA, BEGIN GENERATOR DATA
     1, '1 ',   232.39, 0.00000E+00, 0.00000E+00, 0.00000E+00, 1.06000E+00,      0,      615, 0.00000E+00, 0.00000E+00, 0.00000E+00, 0.00000E+00, 0.00000E+00,      1,      100,    10000,   -10000,      1, 1.00000E+00,      0, 1.00000E+00,      0, 1.00000E+00,      0, 1.00000E+00,      0, 1.00000E+00
     2, '2 ',       40, 0.00000E+00,       50,      -40, 1.04500E+00,      0,       60, 0.00000E+00, 0.00000E+00, 0.00000E+00, 0.00000E+00, 0.00000E+00,      1,      100,    10000,   -10000,      1, 1.00000E+00,      0, 1.00000E+00,      0, 1.00000E+00,      0, 1.00000E+00,      0, 1.00000E+00
     3, '2 ', 0.00000E+00, 0.00000E+00,       40, 0.00000E+00, 1.01000E+00,      0,       60, 0.00000E+00, 0.00000E+00, 0.00000E+00, 0.00000E+00, 0.00000E+00,      1,      100,    10000,   -10000,      1, 1.00000E+00,      0, 1.00000E+00,      0, 1.00000E+00,      0, 1.00000E+00,      0, 1.00000E+00
     6, '2 ', 0.00000E+00, 0.00000E+00,       24,       -6, 1.07000E+00,      0,       25, 0.00000E+00, 0.00000E+00, 0.00000E+00, 0.00000E+00, 0.00000E+00,      1,      100,    10000,   -10000,      1, 1.00000E+00,      0, 1.00000E+00,      0, 1.00000E+00,      0, 1.00000E+00,      0, 1.00000E+00
     8, '1 ', 0.00000E+00, 0.00000E+00,       24,       -6, 1.09000E+00,      0,       25, 0.00000E+00, 0.00000E+00, 0.00000E+00, 0.00000E+00, 0.00000E+00,      1,      100,    10000,   -10000,      1, 1.00000E+00,      0, 1.00000E+00,      0, 1.00000E+00,      0, 1.00000E+00,      0, 1.00000E+00
0 / END OF GENERATOR DATA, BEGIN BRANCH DATA
     1,      2, '1 ',  0.01938,  0.05917,   0.0528, 0.00000E+00, 0.00000E+00, 0.00000E+00, 0.00000E+00, 0.00000E+00, 0.00000E+00, 0.00000E+00,      1,      1, 0.00000E+00,    1, 1.00000E+00,    0, 0.00000E+00,    0, 0.00000E+00,    0, 0.00000E+00
     1,      5, '1 ',  0.05403,  0.22304,   0.0492, 0.00000E+00, 0.00000E+00, 0.00000E+00, 0.00000E+00, 0.00000E+00, 0.00000E+00, 0.00000E+00,      1,      1, 0.00000E+00,    1, 1.00000E+00,    0, 0.00000E+00,    0, 0.00000E+00,    0, 0.00000E+00
     2,      3, '1 ',  0.04699,  0.19797,   0.0438, 0.00000E+00, 0.00000E+00, 0.00000E+00, 0.00000E+00, 0.00000E+00, 0.00000E+00, 0.00000E+00,      1,      1, 0.00000E+00,    1, 1.00000E+00,    0, 0.00000E+00,    0, 0.00000E+00,    0, 0.00000E+00
     2,      4, '1 ',  0.05811,  0.17632,    0.034, 0.00000E+00, 0.00000E+00, 0.00000E+00, 0.00000E+00, 0.00000E+00, 0.00000E+00, 0.00000E+00,      1,      1, 0.00000E+00,    1, 1.00000E+00,    0, 0.00000E+00,    0, 0.00000E+00,    0, 0.00000E+00
     2,      5, '1 ',  0.05695,  0.17388,   0.0346, 0.00000E+00, 0.00000E+00, 0.00000E+00, 0.00000E+00, 0.00000E+00, 0.00000E+00, 0.00000E+00,      1,      1, 0.00000E+00,    1, 1.00000E+00,    0, 0.00000E+00,    0, 0.00000E+00,    0, 0.00000E+00
     3,      4, '1 ',  0.06701,  0.17103,   0.0128, 0.00000E+00, 0.00000E+00, 0.00000E+00, 0.00000E+00, 0.00000E+00, 0.00000E+00, 0.00000E+00,      1,      1, 0.00000E+00,    1, 1.00000E+00,    0, 0.00000E+00,    0, 0.00000E+00,    0, 0.00000E+00
     4,      5, '1 ',  0.01335,  0.04211, 0.00000E+00, 0.00000E+00, 0.00000E+00, 0.00000E+00, 0.00000E+00, 0.00000E+00, 0.00000E+00, 0.00000E+00,      1,      1, 0.00000E+00,    1, 1.00000E+00,    0, 0.00000E+00,    0, 0.00000E+00,    0, 0.00000E+00
     6,     11, '1 ',  0.09498,   0.1989, 0.00000E+00, 0.00000E+00, 0.00000E+00, 0.00000E+00, 0.00000E+00, 0.00000E+00, 0.00000E+00, 0.00000E+00,      1,      1, 0.00000E+00,    1, 1.00000E+00,    0, 0.00000E+00,    0, 0.00000E+00,    0, 0.00000E+00
     6,     12, '1 ',  0.12291,  0.25581, 0.00000E+00, 0.00000E+00, 0.00000E+00, 0.00000E+00, 0.00000E+00, 0.00000E+00, 0.00000E+00, 0.00000E+00,      1,      1, 0.00000E+00,    1, 1.00000E+00,    0, 0.00000E+00,    0, 0.00000E+00,    0, 0.00000E+00
     6,     13, '1 ',  0.06615,  0.13027, 0.00000E+00, 0.00000E+00, 0.00000E+00, 0.00000E+00, 0.00000E+00, 0.00000E+00, 0.00000E+00, 0.00000E+00,      1,      1, 0.00000E+00,    1, 1.00000E+00,    0, 0.00000E+00,    0, 0.00000E+00,    0, 0.00000E+00
     7,      8, '1 ', 0.00000E+00,  0.17615, 0.00000E+00, 0.00000E+00, 0.00000E+00, 0.00000E+00, 0.00000E+00, 0.00000E+00, 0.00000E+00, 0.00000E+00,      1,      1, 0.00000E+00,    1, 1.00000E+00,    0, 0.00000E+00,    0, 0.00000E+00,    0, 0.00000E+00
     7,      9, '1 ', 0.00000E+00,  0.11001, 0.00000E+00, 0.00000E+00, 0.00000E+00, 0.00000E+00, 0.00000E+00, 0.00000E+00, 0.00000E+00, 0.00000E+00,      1,      1, 0.00000E+00,    1, 1.00000E+00,    0, 0.00000E+00,    0, 0.00000E+00,    0, 0.00000E+00
     9,     10, '1 ',  0.03181,   0.0845, 0.00000E+00, 0.00000E+00, 0.00000E+00, 0.00000E+00, 0.00000E+00, 0.00000E+00, 0.00000E+00, 0.00000E+00,      1,      1, 0.00000E+00,    1, 1.00000E+00,    0, 0.00000E+00,    0, 0.00000E+00,    0, 0.00000E+00
     9,     14, '1 ',  0.12711,  0.27038, 0.00000E+00, 0.00000E+00, 0.00000E+00, 0.00000E+00, 0.00000E+00, 0.00000E+00, 0.00000E+00, 0.00000E+00,      1,      1, 0.00000E+00,    1, 1.00000E+00,    0, 0.00000E+00,    0, 0.00000E+00,    0, 0.00000E+00
    10,     11, '1 ',  0.08205,  0.19207, 0.00000E+00, 0.00000E+00, 0.00000E+00, 0.00000E+00, 0.00000E+00, 0.00000E+00, 0.00000E+00, 0.00000E+00,      1,      1, 0.00000E+00,    1, 1.00000E+00,    0, 0.00000E+00,    0, 0.00000E+00,    0, 0.00000E+00
    12,     13, '1 ',  0.22092,  0.19988, 0.00000E+00, 0.00000E+00, 0.00000E+00, 0.00000E+00, 0.00000E+00, 0.00000E+00, 0.00000E+00, 0.00000E+00,      1,      1, 0.00000E+00,    1, 1.00000E+00,    0, 0.00000E+00,    0, 0.00000E+00,    0, 0.00000E+00
    13,     14, '1 ',  0.17093,  0.34802, 0.00000E+00, 0.00000E+00, 0.00000E+00, 0.00000E+00, 0.00000E+00, 0.00000E+00, 0.00000E+00, 0.00000E+00,      1,      1, 0.00000E+00,    1, 1.00000E+00,    0, 0.00000E+00,    0, 0.00000E+00,    0, 0.00000E+00
0 / END OF BRANCH DATA, BEGIN TRANSFORMER DATA
     4,      7,      0, '1 ', 1, 1, 1, 0.00000E+00, 0.00000E+00, 2, '            ', 1,    1,   1.0000,    0,   1.0000,    0,   1.0000,    0,   1.0000, '            '
0.00000E+00, 2.09120E-01,   100.00
 0.97800,  138.000,    0.000,     0.00,     0.00,     0.00,      0,      0,  1.50000,  0.51000,  1.00000,  1.00000,      2,      0,  0.00000,  0.00000,    0.000
 1.00000,    0.000
     4,      9,      0, '1 ', 1, 1, 1, 0.00000E+00, 0.00000E+00, 2, '            ', 1,    1,   1.0000,    0,   1.0000,    0,   1.0000,    0,   1.0000, '            '
0.00000E+00, 5.56180E-01,   100.00
 0.96900,  138.000,    0.000,     0.00,     0.00,     0.00,      0,      0,  1.50000,  0.51000,  1.00000,  1.00000,      2,      0,  0.00000,  0.00000,    0.000
 1.00000,    0.000
     5,      6,      0, '1 ', 1, 1, 1, 0.00000E+00, 0.00000E+00, 2, '            ', 1,    1,   1.0000,    0,   1.0000,    0,   1.0000,    0,   1.0000, '            '
0.00000E+00, 2.52020E-01,   100.00
 0.93200,  138.000,    0.000,     0.00,     0.00,     0.00,      0,      0,  1.50000,  0.51000,  1.00000,  1.00000,      2,      0,  0.00000,  0.00000,    0.000
 1.00000,    0.000
0 / END OF TRANSFORMER DATA, BEGIN AREA INTERCHANGE DATA
     1,      0, 0.00000E+00, 0.00000E+00, 'IEEE14      '
0 / END OF AREA INTERCHANGE DATA, BEGIN TWO-TERMINAL DC LINE DATA
0 / END OF TWO-TERMINAL DC LINE DATA, BEGIN VSC DC LINE DATA
0 / END OF VSC DC LINE DATA, BEGIN IMPEDANCE CORRECTION DATA
0 / END OF IMPEDANCE CORRECTION DATA, BEGIN MULTI-TERMINAL DC LINE DATA
0 / END OF MULTI-TERMINAL DC LINE DATA, BEGIN MULTI-SECTION LINE GROUP DATA
0 / END OF MULTI-SECTION LINE GROUP DATA, BEGIN ZONE DATA
     1, 'IEEE 14     '
0 / END OF ZONE DATA, BEGIN INTER-AREA TRANSFER DATA
0 / END OF INTER-AREA TRANSFER DATA, BEGIN OWNER DATA
   1, 'default     '
0 / END OF OWNER DATA, BEGIN FACTS DEVICE DATA
0 / END OF FACTS DEVICE DATA, BEGIN SWITCHED SHUNT DATA
0 / END OF SWITCHED SHUNT DATA, BEGIN GNE DATA
0 / END OF GNE DATA, BEGIN SUBSTATION DATA
0 / END OF SUBSTATION DATA
Q
